Circuit: * C:\Users\ALEXANDRA\Desktop\proiectSCIA\FTB_Rauch[1].asc

Direct Newton iteration failed to find .op point.  (Use ".option noopiter" to skip.)
Starting Gmin stepping
Gmin = 10
Gmin = 1.07374
Gmin = 0.115292
Gmin = 0.0123794
Gmin = 0.00132923
Gmin = 0.000142725
Gmin = 1.5325e-005
Gmin = 1.6455e-006
Gmin = 1.76685e-007
Gmin = 1.89714e-008
Gmin = 2.03704e-009
Gmin = 2.18725e-010
Gmin = 2.34854e-011
Gmin = 2.52173e-012
Gmin = 2.70769e-013
Gmin = 0
Gmin stepping succeeded in finding the operating point.

N-Period=1
Fourier components of V(out)
DC component:4.09217e-006

Harmonic	Frequency	 Fourier 	Normalized	 Phase  	Normalized
 Number 	  [Hz]   	Component	 Component	[degree]	Phase [deg]
    1   	1.270e+04	5.922e-02	1.000e+00	 -179.84°	    0.00°
    2   	2.540e+04	4.291e-07	7.247e-06	  160.65°	  340.49°
    3   	3.810e+04	4.288e-07	7.241e-06	 -164.02°	   15.82°
    4   	5.080e+04	4.283e-07	7.233e-06	 -128.70°	   51.14°
    5   	6.350e+04	4.277e-07	7.223e-06	  -93.38°	   86.46°
    6   	7.620e+04	4.270e-07	7.210e-06	  -58.07°	  121.77°
    7   	8.890e+04	4.261e-07	7.195e-06	  -22.76°	  157.08°
    8   	1.016e+05	4.251e-07	7.178e-06	   12.54°	  192.39°
    9   	1.143e+05	4.239e-07	7.159e-06	   47.84°	  227.68°
   10   	1.270e+05	4.226e-07	7.137e-06	   83.13°	  262.97°
Total Harmonic Distortion: 0.002161%(0.014759%)



Date: Thu Jan 18 11:13:27 2024
Total elapsed time: 0.070 seconds.

tnom = 27
temp = 27
method = modified trap
totiter = 2510
traniter = 2144
tranpoints = 1073
accept = 1064
rejected = 9
matrix size = 13
fillins = 3
solver = Normal
Matrix Compiler1: 764 bytes object code size  0.5/0.2/[0.1]
Matrix Compiler2: off  [0.3]/0.3/0.4

