Circuit: * C:\Users\ALEXANDRA\Desktop\proiectSCIA\PGA.asc

Direct Newton iteration failed to find .op point.  (Use ".option noopiter" to skip.)
Starting Gmin stepping
Gmin = 10
Gmin = 1.07374
Gmin = 0.115292
Gmin = 0.0123794
Gmin = 0.00132923
Gmin = 0.000142725
Gmin = 1.5325e-005
Gmin = 1.6455e-006
Gmin = 1.76685e-007
Gmin = 1.89714e-008
Gmin = 2.03704e-009
Gmin = 2.18725e-010
Gmin = 2.34854e-011
Gmin = 2.52173e-012
Gmin = 2.70769e-013
Gmin = 0
Gmin stepping succeeded in finding the operating point.

N-Period=1
Fourier components of V(out)
DC component:9.15446e-006

Harmonic	Frequency	 Fourier 	Normalized	 Phase  	Normalized
 Number 	  [Hz]   	Component	 Component	[degree]	Phase [deg]
    1   	1.270e+04	3.118e-02	1.000e+00	   -0.03°	    0.00°
    2   	2.540e+04	3.434e-06	1.101e-04	   -0.31°	   -0.28°
    3   	3.810e+04	1.211e-04	3.884e-03	 -178.83°	 -178.80°
    4   	5.080e+04	1.630e-05	5.226e-04	  -11.25°	  -11.22°
    5   	6.350e+04	9.562e-05	3.066e-03	   -3.21°	   -3.18°
    6   	7.620e+04	1.213e-05	3.891e-04	 -120.04°	 -120.00°
    7   	8.890e+04	5.956e-05	1.910e-03	 -166.35°	 -166.32°
    8   	1.016e+05	1.069e-05	3.430e-04	 -159.47°	 -159.44°
    9   	1.143e+05	1.666e-05	5.341e-04	   40.33°	   40.36°
   10   	1.270e+05	8.404e-06	2.695e-04	   97.54°	   97.57°
Total Harmonic Distortion: 0.538953%(0.572531%)





Date: Thu Jan 18 11:17:14 2024
Total elapsed time: 0.151 seconds.

tnom = 27
temp = 27
method = modified trap
totiter = 3348
traniter = 2982
tranpoints = 1492
accept = 1261
rejected = 231
matrix size = 29
fillins = 4
solver = Normal
Matrix Compiler1: 1.47 KB object code size  0.4/0.2/[0.1]
Matrix Compiler2: off  [0.2]/0.3/0.5

