Circuit: * C:\Users\ALEXANDRA\Desktop\proiectSCIA\PGAneinversor.asc

Direct Newton iteration failed to find .op point.  (Use ".option noopiter" to skip.)
Starting Gmin stepping
Gmin = 10
Gmin = 1.07374
Gmin = 0.115292
Gmin = 0.0123794
Gmin = 0.00132923
Gmin = 0.000142725
Gmin = 1.5325e-005
Gmin = 1.6455e-006
Gmin = 1.76685e-007
Gmin = 1.89714e-008
Gmin = 2.03704e-009
Gmin = 2.18725e-010
Gmin = 2.34854e-011
Gmin = 2.52173e-012
Gmin = 2.70769e-013
Gmin = 0
Gmin stepping succeeded in finding the operating point.

N-Period=1
Fourier components of V(out)
DC component:1.50349e-021

Harmonic	Frequency	 Fourier 	Normalized	 Phase  	Normalized
 Number 	  [Hz]   	Component	 Component	[degree]	Phase [deg]
    1   	1.270e+04	5.178e-21	1.000e+00	  168.02°	    0.00°
    2   	2.540e+04	3.538e-24	6.833e-04	 -140.92°	 -308.94°
    3   	3.810e+04	7.156e-23	1.382e-02	    8.47°	 -159.55°
    4   	5.080e+04	2.807e-24	5.422e-04	   54.32°	 -113.70°
    5   	6.350e+04	2.464e-23	4.760e-03	  176.88°	    8.86°
    6   	7.620e+04	3.048e-24	5.887e-04	  -34.80°	 -202.82°
    7   	8.890e+04	5.952e-24	1.150e-03	   96.96°	  -71.06°
    8   	1.016e+05	2.200e-24	4.250e-04	  -94.05°	 -262.07°
    9   	1.143e+05	4.794e-24	9.259e-04	    6.85°	 -161.17°
   10   	1.270e+05	1.032e-24	1.993e-04	    5.14°	 -162.88°
Total Harmonic Distortion: 1.473730%(1.512231%)





Date: Wed Jan 17 20:37:24 2024
Total elapsed time: 0.125 seconds.

tnom = 27
temp = 27
method = modified trap
totiter = 5097
traniter = 4646
tranpoints = 2324
accept = 1650
rejected = 674
matrix size = 29
fillins = 5
solver = Normal
Matrix Compiler1: 1.77 KB object code size  0.6/0.4/[0.2]
Matrix Compiler2: off  [0.3]/0.5/0.4

