Circuit: * C:\Users\ALEXANDRA\Desktop\proiectSCIA\final\totul.asc

Ignoring empty pin current: Ix(x3:s1)
Ignoring empty pin current: Ix(x3:s2)
Ignoring empty pin current: Ix(x3:s3)
Ignoring empty pin current: Ix(x3:s4)
Ignoring empty pin current: Ix(x3:s5)
Direct Newton iteration failed to find .op point.  (Use ".option noopiter" to skip.)
Starting Gmin stepping
Gmin = 10
Gmin = 1.07374
Gmin = 0.115292
Gmin = 0.0123794
Gmin = 0.00132923
Gmin = 0.000142725
Gmin = 1.5325e-005
Gmin = 1.6455e-006
Gmin = 1.76685e-007
Gmin = 1.89714e-008
Gmin = 2.03704e-009
Gmin = 2.18725e-010
Gmin = 2.34854e-011
Gmin = 2.52173e-012
Gmin = 2.70769e-013
Gmin = 0
Gmin stepping succeeded in finding the operating point.


Date: Wed Jan 17 21:32:22 2024
Total elapsed time: 0.301 seconds.

tnom = 27
temp = 27
method = trap
totiter = 6482
traniter = 0
tranpoints = 0
accept = 0
rejected = 0
matrix size = 67
fillins = 40
solver = Normal
Thread vector: 13.8/9.2[5] 0.0/0.0[0] 2.7/1.2[5] 0.2/3.7[1]  2592/500
Matrix Compiler1:     318 opcodes  4.2/1.6/[0.3]
Matrix Compiler2: 7.05 KB object code size  1.2/1.1/[0.3]

